&noahlsm_offline
    btr_option = 1
    canopy_stomatal_resistance_option = 1
    dynamic_veg_option = 4
    forcing_timestep = 3600
    frozen_soil_option = 1
    glacier_option = 2
    hrldas_setup_file = './NWM/DOMAIN_LR/wrfinput_d01.nc'
    indir = './FORCING'
    khour = 144
    noah_timestep = 3600
    nsoil = 4
    outdir = './'
    output_timestep = 3600
    pcp_partition_option = 1
    radiative_transfer_option = 3
    restart_filename_requested = './NWM/RESTART_LR/RESTART.2011082600_DOMAIN1'
    restart_frequency_hours = 24
    rst_bi_in = 0
    rst_bi_out = 0
    runoff_option = 3
    snow_albedo_option = 1
    soil_thick_input = 0.1, 0.3, 0.6, 1.0
    spatial_filename = './NWM/DOMAIN_LR/soil_properties.nc'
    split_output_count = 1
    start_day = 26
    start_hour = 0
    start_min = 0
    start_month = 8
    start_year = 2011
    supercooled_water_option = 1
    surface_drag_option = 1
    surface_resistance_option = 4
    tbot_option = 2
    temp_time_scheme_option = 3
    zlvl = 10.0
/

&wrf_hydro_offline
    forc_typ = 1
/
